REMARK  3 active torsions:
REMARK  status: ('A' for Active; 'I' for Inactive)
REMARK    1  A    between atoms: C6_6  and  C8_8 
REMARK    2  A    between atoms: C10_10  and  N5_24 
REMARK    3  A    between atoms: C12_11  and  N5_24 
ROOT
HETATM    1  C8  855 A 857      14.743  65.859   5.924  1.00  0.00     0.181 A 
HETATM    2  N9  855 A 857      15.662  66.579   5.254  1.00  0.00    -0.208 NA
HETATM    3  C10 855 A 857      16.474  67.416   5.931  1.00  0.00     0.143 A 
HETATM    4  C18 855 A 857      16.401  67.566   7.336  1.00  0.00     0.039 A 
HETATM    5  C19 855 A 857      17.216  68.435   8.152  1.00  0.00     0.018 A 
HETATM    6  C20 855 A 857      17.037  68.486   9.557  1.00  0.00     0.001 A 
HETATM    7  C21 855 A 857      16.050  67.678  10.165  1.00  0.00     0.002 A 
HETATM    8  C22 855 A 857      15.237  66.821   9.367  1.00  0.00     0.032 A 
HETATM    9  C23 855 A 857      15.392  66.751   7.965  1.00  0.00     0.073 A 
HETATM   10  N24 855 A 857      14.580  65.915   7.272  1.00  0.00    -0.226 NA
ENDROOT
BRANCH   3  11
HETATM   11  N5  855 A 857      17.395  68.128   5.153  1.00  0.00    -0.340 N 
HETATM   12  H15 855 A 857      18.211  68.386   5.639  1.00  0.00     0.167 HD
BRANCH  11  13
HETATM   13  C12 855 A 857      17.378  68.546   3.810  1.00  0.00     0.036 A 
HETATM   14  C17 855 A 857      16.213  68.407   2.978  1.00  0.00     0.048 A 
HETATM   15  C16 855 A 857      16.275  68.850   1.647  1.00  0.00     0.118 A 
HETATM   16  N15 855 A 857      17.404  69.414   1.099  1.00  0.00    -0.273 NA
HETATM   17  C14 855 A 857      18.514  69.538   1.910  1.00  0.00     0.118 A 
HETATM   18  C13 855 A 857      18.540  69.123   3.250  1.00  0.00     0.048 A 
ENDBRANCH  11  13
ENDBRANCH   3  11
BRANCH   1  19
HETATM   19  C6  855 A 857      13.872  64.995   5.122  1.00  0.00     0.104 A 
HETATM   20  C5  855 A 857      14.305  64.371   3.922  1.00  0.00     0.036 A 
HETATM   21  C4  855 A 857      13.377  63.574   3.204  1.00  0.00     0.004 A 
HETATM   22  C3  855 A 857      12.050  63.421   3.683  1.00  0.00     0.027 A 
HETATM   23  C2  855 A 857      11.688  64.067   4.880  1.00  0.00     0.031 A 
HETATM   24  C1  855 A 857      10.302  63.945   5.427  1.00  0.00     0.070 C 
HETATM   25  N7  855 A 857      12.574  64.838   5.586  1.00  0.00    -0.250 NA
ENDBRANCH   1  19
TORSDOF 3
